8
4.0150446055584563    0    0      0    4.0150446055584563    0      0    0    8.5107469272578715
La 0.0000000000000000  0.5000000000000000  0.1462406801538441
La 0.5000000000000000  0.0000000000000000  0.8537593198461557
O  0.0000000000000000  0.0000000000000000  0.0000000000000000
O  0.5000000000000000  0.5000000000000000  0.0000000000000000
Fe 0.0000000000000000  0.0000000000000000  0.5000000000000000
Fe 0.5000000000000000  0.5000000000000000  0.5000000000000000
As 0.5000000000000000  0.0000000000000000  0.3608802745617983
As 0.0000000000000000  0.5000000000000000  0.6391197254382017
